7
Properties=species:S:1:pos:R:3 ipi_comment="Step:           0  Bead:       0 positions{ase}  cell{ase}" pbc="F F F"
O       -0.24525292       0.92704947       0.70060630
H        0.50572486       1.32109162       1.06381283
H       -1.11256270       1.27455707       0.89327293
O        0.24664311      -0.93881000      -0.68037431
H       -0.04364253       0.07101824       0.05101683
H        1.06001929      -1.02699918      -1.19234993
H       -0.43160411      -1.45300416      -1.13687519
7
Properties=species:S:1:pos:R:3 ipi_comment="Step:          20  Bead:       0 positions{ase}  cell{ase}" pbc="F F F"
O       -0.25403281       0.96424847       0.71885472
H        0.46036584       1.36768721       1.20369955
H       -1.08146423       1.18344446       1.14312086
O        0.25703477      -0.96114728      -0.71899351
H       -0.07667076       0.01119965      -0.05325576
H        1.08681744      -1.07006956      -1.20829193
H       -0.43669557      -1.54148378      -1.08306965
7
Properties=species:S:1:pos:R:3 ipi_comment="Step:          40  Bead:       0 positions{ase}  cell{ase}" pbc="F F F"
O       -0.25888711       1.00286825       0.73732273
H        0.42564825       1.44051108       1.30210765
H       -1.06694143       0.98096814       1.26688986
O        0.25183856      -0.98093264      -0.74968432
H        0.06743919      -0.14653135      -0.10489867
H        1.11041281      -1.00127813      -1.20957222
H       -0.42468411      -1.62183209      -1.05832297
7
Properties=species:S:1:pos:R:3 ipi_comment="Step:          60  Bead:       0 positions{ase}  cell{ase}" pbc="F F F"
O       -0.26522538       1.01593859       0.74326356
H        0.46567434       1.42698835       1.32255736
H       -1.02297763       0.77282929       1.31232379
O        0.25701039      -0.98276354      -0.76299464
H        0.02494890      -0.04517039       0.05652044
H        1.06733919      -1.03313882      -1.31674906
H       -0.40459645      -1.64806334      -1.06148037
7
Properties=species:S:1:pos:R:3 ipi_comment="Step:          80  Bead:       0 positions{ase}  cell{ase}" pbc="F F F"
O       -0.27306907       0.97544911       0.72474225
H        0.56469494       1.30013619       1.24354490
H       -0.97857437       0.75275615       1.39429521
O        0.26188479      -0.95124174      -0.74473228
H        0.00689523       0.20823370       0.07843228
H        1.00182809      -1.03783536      -1.38758362
H       -0.41732681      -1.60751039      -1.01140636
7
Properties=species:S:1:pos:R:3 ipi_comment="Step:         100  Bead:       0 positions{ase}  cell{ase}" pbc="F F F"
O       -0.26923593       0.95156886       0.71322114
H        0.59568520       1.23973841       1.18331166
H       -0.93467608       0.68234525       1.42501350
O        0.26226513      -0.91544063      -0.72431572
H       -0.07246757      -0.01687130      -0.09742907
H        0.97836865      -0.93073581      -1.40325115
H       -0.45626960      -1.54790439      -0.93155140
7
Properties=species:S:1:pos:R:3 ipi_comment="Step:         120  Bead:       0 positions{ase}  cell{ase}" pbc="F F F"
O       -0.26468637       0.92199672       0.69802312
H        0.56552883       1.27738755       1.17043645
H       -0.89944659       0.71538104       1.47157468
O        0.25372683      -0.90629990      -0.71289040
H        0.02408105       0.04933748       0.03338543
H        0.89730278      -0.73063756      -1.43676673
H       -0.41351604      -1.56060853      -1.00265589
